Version 4
SHEET 1 1736 680
WIRE -48 -624 -304 -624
WIRE -560 -560 -656 -560
WIRE 416 -544 336 -544
WIRE 704 -544 688 -544
WIRE 784 -544 704 -544
WIRE 928 -544 784 -544
WIRE -656 -528 -656 -560
WIRE 784 -528 784 -544
WIRE -560 -496 -592 -496
WIRE -272 -496 -304 -496
WIRE 784 -448 784 -464
WIRE -656 -432 -656 -464
WIRE -560 -432 -656 -432
WIRE -224 -432 -304 -432
WIRE -80 -432 -224 -432
WIRE -224 -416 -224 -432
WIRE -592 -384 -592 -496
WIRE -224 -352 -224 -368
WIRE -272 -336 -272 -496
WIRE -224 -336 -224 -352
WIRE -224 -336 -272 -336
WIRE -224 -320 -224 -336
WIRE 560 -320 560 -384
WIRE -928 -208 -1024 -208
WIRE -1024 -160 -1024 -208
WIRE 736 -96 736 -160
WIRE -688 -80 -768 -80
WIRE -416 -80 -464 -80
WIRE -1024 -48 -1024 -80
WIRE -576 48 -576 -16
WIRE 736 48 736 -16
WIRE 736 48 656 48
WIRE 864 48 736 48
WIRE 1168 48 928 48
WIRE 1312 48 1168 48
WIRE -176 96 -304 96
WIRE 240 96 80 96
WIRE 144 112 144 64
WIRE -256 128 -256 64
WIRE 80 128 80 96
WIRE 112 128 80 128
WIRE 144 128 144 112
WIRE -304 144 -304 96
WIRE -288 144 -304 144
WIRE -256 144 -256 128
WIRE 240 144 240 96
WIRE 240 144 176 144
WIRE 256 144 240 144
WIRE 352 144 336 144
WIRE 432 144 352 144
WIRE 528 144 528 96
WIRE 528 144 496 144
WIRE 720 144 528 144
WIRE 848 144 800 144
WIRE 880 144 848 144
WIRE 992 144 960 144
WIRE 1040 144 992 144
WIRE 1136 144 1104 144
WIRE 1232 144 1216 144
WIRE -176 160 -176 96
WIRE -176 160 -224 160
WIRE -144 160 -176 160
WIRE -16 160 -16 -32
WIRE -16 160 -64 160
WIRE 112 160 -16 160
WIRE -640 176 -896 176
WIRE -336 176 -576 176
WIRE -288 176 -336 176
WIRE 992 176 992 144
WIRE 1232 208 1232 144
WIRE -336 240 -336 176
WIRE 352 240 352 208
WIRE -896 256 -896 176
WIRE -256 272 -256 192
WIRE 144 272 144 176
WIRE 656 288 656 48
WIRE 736 288 736 192
WIRE 736 288 656 288
WIRE 784 288 784 192
WIRE 816 288 784 288
WIRE 736 336 656 336
WIRE 1280 336 1280 272
WIRE 1312 336 1312 48
WIRE 1312 336 1280 336
WIRE -336 384 -336 320
WIRE 736 384 736 336
WIRE 784 384 784 288
WIRE 720 432 560 432
WIRE 848 432 848 144
WIRE 848 432 800 432
WIRE 992 448 992 240
WIRE 1232 448 1232 288
WIRE 656 544 656 336
WIRE 1312 544 1312 336
WIRE 1312 544 656 544
FLAG -896 336 0
FLAG 352 240 0
FLAG 736 -160 0
FLAG 816 288 0
FLAG 1280 224 0
FLAG 1168 48 SW_CNV
FLAG 560 432 0
FLAG 992 448 0
FLAG 1232 448 0
FLAG -64 224 0
FLAG -16 -32 nyq_out
IOPIN -16 -32 Out
FLAG 528 96 flywheel_out
IOPIN 528 96 Out
FLAG -256 272 0
FLAG -768 -80 Vcc
IOPIN -768 -80 In
FLAG -576 48 0
FLAG -256 64 Vcc
IOPIN -256 64 In
FLAG 144 64 Vcc
IOPIN 144 64 In
FLAG 144 272 0
FLAG -336 384 V_REF
IOPIN -336 384 In
FLAG -416 -80 V_REF
IOPIN -416 -80 Out
FLAG -592 -384 0
FLAG -224 -320 0
FLAG -1024 -48 0
FLAG -928 -208 Vcc+
IOPIN -928 -208 Out
FLAG -80 -432 Vdd+
IOPIN -80 -432 Out
FLAG 784 -448 0
FLAG 560 -320 0
FLAG 336 -544 Vcc+
IOPIN 336 -544 In
FLAG 928 -544 Vdd+
IOPIN 928 -544 Out
FLAG -48 -624 Vdd+
IOPIN -48 -624 In
SYMBOL Misc\\signal -896 240 M0
WINDOW 123 24 132 Left 2
WINDOW 39 24 160 Left 2
SYMATTR Value2 AC 1 0
SYMATTR SpiceLine Rser=100
SYMATTR InstName V3
SYMATTR Value SINE(0 1 60k)
SYMBOL res 352 128 R90
WINDOW 0 0 56 VBottom 2
WINDOW 3 32 56 VTop 2
SYMATTR InstName R1
SYMATTR Value 157
SYMBOL cap 336 144 R0
SYMATTR InstName C1
SYMATTR Value 3.3n
SYMBOL Opamps\\opamp2 144 80 R0
SYMATTR InstName U1
SYMATTR Value ad8051_5
SYMBOL voltage 736 0 R180
WINDOW 3 36 61 Left 2
WINDOW 123 0 0 Left 2
WINDOW 39 0 0 Left 2
SYMATTR Value PULSE(0 1 670n 1n 1n 3.92us 5.12us)
SYMATTR InstName V4
SYMBOL cap 976 240 M180
WINDOW 0 24 56 Left 2
WINDOW 3 24 8 Left 2
SYMATTR InstName C2
SYMATTR Value 8pf
SYMBOL sw 816 144 M270
WINDOW 3 -27 149 VLeft 2
WINDOW 0 26 23 VLeft 2
SYMATTR Value mySW
SYMATTR InstName S1
SYMBOL sw 1232 192 M0
WINDOW 3 5 108 Left 2
WINDOW 0 11 7 Left 2
SYMATTR Value mySW
SYMATTR InstName S2
SYMBOL Digital\\inv 864 -16 R0
SYMATTR InstName A1
SYMBOL sw 816 432 R90
WINDOW 3 -27 149 VLeft 2
WINDOW 0 26 23 VLeft 2
SYMATTR Value mySW
SYMATTR InstName S3
SYMBOL cap 1040 160 R270
WINDOW 0 32 32 VTop 2
WINDOW 3 0 32 VBottom 2
SYMATTR InstName C3
SYMATTR Value 22pf
SYMBOL res 1120 160 R270
WINDOW 0 32 56 VTop 2
WINDOW 3 0 56 VBottom 2
SYMATTR InstName R2
SYMATTR Value 636
SYMBOL res 976 128 R90
WINDOW 0 0 56 VBottom 2
WINDOW 3 32 56 VTop 2
SYMATTR InstName R3
SYMATTR Value 125
SYMBOL Opamps\\opamp2 -256 96 R0
SYMATTR InstName U2
SYMATTR Value ad8051_5
SYMBOL res -48 144 R90
WINDOW 0 0 56 VBottom 2
WINDOW 3 32 56 VTop 2
SYMATTR InstName R4
SYMATTR Value 493
SYMBOL cap -80 160 R0
SYMATTR InstName C4
SYMATTR Value 3.3n
SYMBOL References\\LT6656-1.25 -576 -80 R0
SYMATTR InstName U3
SYMBOL res -352 224 R0
SYMATTR InstName R5
SYMATTR Value 100k
SYMBOL cap -640 192 R270
WINDOW 0 32 32 VTop 2
WINDOW 3 0 32 VBottom 2
SYMATTR InstName C5
SYMATTR Value 220µF
SYMBOL cap 432 160 R270
WINDOW 0 32 32 VTop 2
WINDOW 3 0 32 VBottom 2
SYMATTR InstName C6
SYMATTR Value 220µf
SYMBOL cap -640 -528 M0
SYMATTR InstName C7
SYMATTR Value 1µF
SYMBOL PowerProducts\\LTC1046 -432 -528 R0
SYMATTR InstName U4
SYMBOL cap -240 -416 R0
SYMATTR InstName C8
SYMATTR Value 10µF
SYMBOL voltage -1024 -176 R0
WINDOW 123 0 0 Left 2
WINDOW 39 0 0 Left 2
SYMATTR InstName V1
SYMATTR Value 5
SYMBOL cap 768 -528 R0
SYMATTR InstName C9
SYMATTR Value 10µF
SYMBOL PowerProducts\\LT1121-3.3 560 -496 R0
SYMATTR InstName U5
TEXT 56 464 Left 2 !;ac dec 10 1 1000kHz
TEXT 64 496 Left 2 !.tran 0 3ms 0 100n
TEXT 56 400 Left 2 !.include ad8051_5.cir
TEXT 760 616 Left 2 !.model mySw SW(Ron=40 Vt=0.5)
TEXT 824 -56 Left 4 ;SAR ADC input
