Version 4
SHEET 1 1736 680
WIRE -1104 -1264 -1264 -1264
WIRE -1024 -1264 -1104 -1264
WIRE -1104 -1248 -1104 -1264
WIRE -1264 -1216 -1264 -1264
WIRE -1104 -1152 -1104 -1184
WIRE -1264 -1104 -1264 -1136
WIRE -912 -1024 -1024 -1024
WIRE -1280 -960 -1376 -960
WIRE -1376 -928 -1376 -960
WIRE -1280 -896 -1312 -896
WIRE -992 -896 -1024 -896
WIRE -1376 -832 -1376 -864
WIRE -1280 -832 -1376 -832
WIRE -944 -832 -1024 -832
WIRE -896 -832 -944 -832
WIRE -944 -816 -944 -832
WIRE -1312 -784 -1312 -896
WIRE -2176 -752 -2176 -784
WIRE -2128 -752 -2176 -752
WIRE -2032 -752 -2064 -752
WIRE -944 -752 -944 -768
WIRE -2576 -736 -2576 -768
WIRE -2528 -736 -2576 -736
WIRE -2432 -736 -2464 -736
WIRE -2032 -736 -2032 -752
WIRE -992 -736 -992 -896
WIRE -944 -736 -944 -752
WIRE -944 -736 -992 -736
WIRE -2432 -720 -2432 -736
WIRE -1536 -720 -1904 -720
WIRE -944 -720 -944 -736
WIRE -2240 -704 -2384 -704
WIRE -2080 -704 -2240 -704
WIRE -2384 -688 -2384 -704
WIRE -2496 -672 -2624 -672
WIRE -2176 -656 -2176 -752
WIRE -2576 -640 -2576 -736
WIRE -2240 -640 -2240 -704
WIRE -2208 -640 -2240 -640
WIRE -2176 -640 -2176 -656
WIRE -1360 -640 -1376 -640
WIRE -1280 -640 -1360 -640
WIRE -976 -640 -1024 -640
WIRE -896 -640 -976 -640
WIRE -2624 -624 -2624 -672
WIRE -2608 -624 -2624 -624
WIRE -2576 -624 -2576 -640
WIRE -2080 -624 -2080 -704
WIRE -2080 -624 -2144 -624
WIRE -2048 -624 -2080 -624
WIRE -1952 -624 -1952 -672
WIRE -1952 -624 -1984 -624
WIRE -1856 -624 -1952 -624
WIRE -1792 -624 -1856 -624
WIRE -1648 -624 -1712 -624
WIRE -1360 -624 -1360 -640
WIRE -976 -624 -976 -640
WIRE -2496 -608 -2496 -672
WIRE -2496 -608 -2544 -608
WIRE -2464 -608 -2496 -608
WIRE -2384 -608 -2384 -624
WIRE -2320 -608 -2384 -608
WIRE -2208 -608 -2240 -608
WIRE -2864 -592 -2864 -608
WIRE -2816 -592 -2864 -592
WIRE -2688 -592 -2752 -592
WIRE -2608 -592 -2688 -592
WIRE -2240 -592 -2240 -608
WIRE -2688 -560 -2688 -592
WIRE -976 -560 -976 -576
WIRE -2176 -528 -2176 -592
WIRE -2144 -528 -2176 -528
WIRE -2048 -528 -2080 -528
WIRE -1856 -528 -1856 -560
WIRE -1648 -528 -1648 -560
WIRE -2864 -512 -2864 -592
WIRE -2576 -512 -2576 -576
WIRE -2528 -512 -2576 -512
WIRE -2432 -512 -2464 -512
WIRE -2240 -512 -2240 -528
WIRE -2048 -512 -2048 -528
WIRE -1360 -512 -1360 -560
WIRE -1152 -512 -1152 -544
WIRE -976 -512 -976 -560
WIRE -2432 -496 -2432 -512
WIRE -2176 -496 -2176 -528
WIRE -2576 -480 -2576 -512
WIRE -1904 -480 -1904 -720
WIRE -1536 -480 -1536 -720
WIRE -1536 -480 -1904 -480
WIRE -2864 -400 -2864 -432
WIRE -2688 -400 -2688 -480
WIRE -1360 -352 -1392 -352
WIRE -1280 -352 -1360 -352
WIRE -976 -352 -1024 -352
WIRE -896 -352 -976 -352
WIRE -1360 -336 -1360 -352
WIRE -976 -336 -976 -352
WIRE -976 -272 -976 -288
WIRE -1360 -224 -1360 -272
WIRE -1152 -224 -1152 -256
WIRE -976 -224 -976 -272
WIRE -1360 -80 -1392 -80
WIRE -1280 -80 -1360 -80
WIRE -976 -80 -1024 -80
WIRE -896 -80 -976 -80
WIRE -1360 -64 -1360 -80
WIRE -976 -64 -976 -80
WIRE -1360 64 -1360 0
WIRE -1152 64 -1152 16
WIRE -976 64 -976 0
FLAG -2864 -400 0
FLAG -1952 -672 flywheel_out
IOPIN -1952 -672 Out
FLAG -2576 -768 Vdd+
IOPIN -2576 -768 In
FLAG -1312 -784 0
FLAG -944 -720 0
FLAG -1264 -1104 0
FLAG -1024 -1264 Vcc+
IOPIN -1024 -1264 Out
FLAG -896 -832 Vdd-
IOPIN -896 -832 Out
FLAG -976 64 0
FLAG -1152 64 0
FLAG -896 -80 Vdd+
IOPIN -896 -80 Out
FLAG -912 -1024 Vdd+
IOPIN -912 -1024 In
FLAG -2576 -480 Vdd-
IOPIN -2576 -480 In
FLAG -2176 -496 Vdd-
IOPIN -2176 -496 In
FLAG -2688 -400 0
FLAG -1856 -528 0
FLAG -1648 -528 0
FLAG -2240 -512 0
FLAG -2864 -608 Vin
IOPIN -2864 -608 Out
FLAG -2432 -720 0
FLAG -2176 -784 Vdd+
IOPIN -2176 -784 In
FLAG -2032 -736 0
FLAG -1104 -1152 0
FLAG -2432 -496 0
FLAG -2048 -512 0
FLAG -1152 -224 0
FLAG -976 -224 0
FLAG -1360 -224 0
FLAG -1392 -352 Vcc+
IOPIN -1392 -352 Out
FLAG -896 -352 5V+
IOPIN -896 -352 Out
FLAG -1152 -512 0
FLAG -1360 -512 0
FLAG -1376 -640 Vcc+
IOPIN -1376 -640 Out
FLAG -976 -512 0
FLAG -896 -640 12V+
IOPIN -896 -640 Out
FLAG -1360 64 0
FLAG -1392 -80 Vcc+
IOPIN -1392 -80 Out
SYMBOL Misc\\signal -2864 -528 M0
WINDOW 123 24 132 Left 2
WINDOW 39 24 160 Left 2
SYMATTR Value2 AC 1 0
SYMATTR SpiceLine Rser=100
SYMATTR InstName V3
SYMATTR Value SINE(0 0.5 60k)
SYMBOL res -2368 -624 R90
WINDOW 0 0 56 VBottom 2
WINDOW 3 32 56 VTop 2
SYMATTR InstName R4
SYMATTR Value 100K
SYMBOL cap -2400 -688 R0
SYMATTR InstName C4
SYMATTR Value 27pF
SYMBOL cap -2816 -576 R270
WINDOW 0 32 32 VTop 2
WINDOW 3 0 32 VBottom 2
SYMATTR InstName C5
SYMATTR Value 220µF
SYMBOL cap -2048 -608 R270
WINDOW 0 32 32 VTop 2
WINDOW 3 0 32 VBottom 2
SYMATTR InstName C6
SYMATTR Value 220µf
SYMBOL cap -1360 -928 M0
SYMATTR InstName C7
SYMATTR Value 10µF
SYMBOL PowerProducts\\LTC1046 -1152 -928 R0
SYMATTR InstName U4
SYMBOL cap -960 -816 R0
SYMATTR InstName C8
SYMATTR Value 10µF
SYMBOL voltage -1264 -1232 R0
WINDOW 123 0 0 Left 2
WINDOW 39 24 44 Left 2
SYMATTR SpiceLine Rser=10
SYMATTR InstName V1
SYMATTR Value 15
SYMBOL cap -992 -64 R0
SYMATTR InstName C9
SYMATTR Value 10µf
SYMBOL res -2704 -576 R0
SYMATTR InstName R5
SYMATTR Value 10k
SYMBOL cap -1872 -624 R0
SYMATTR InstName C2
SYMATTR Value 12pF
SYMBOL cap -1664 -624 R0
SYMATTR InstName C3
SYMATTR Value 10pF
SYMBOL res -1808 -608 R270
WINDOW 0 32 56 VTop 2
WINDOW 3 0 56 VBottom 2
SYMATTR InstName R2
SYMATTR Value 4k
SYMBOL res -2224 -624 R90
WINDOW 0 0 56 VBottom 2
WINDOW 3 32 56 VTop 2
SYMATTR InstName R1
SYMATTR Value 100K
SYMBOL cap -2256 -592 R0
SYMATTR InstName C1
SYMATTR Value 13pF
SYMBOL Opamps\\LT1632 -2576 -672 R0
SYMATTR InstName U1
SYMBOL Opamps\\LT1632 -2176 -688 R0
SYMATTR InstName U2
SYMBOL cap -2464 -752 R90
WINDOW 0 0 32 VBottom 2
WINDOW 3 32 32 VTop 2
SYMATTR InstName C12
SYMATTR Value 100nf
SYMBOL cap -2064 -768 R90
WINDOW 0 0 32 VBottom 2
WINDOW 3 32 32 VTop 2
SYMATTR InstName C13
SYMATTR Value 100nf
SYMBOL cap -1120 -1248 R0
SYMATTR InstName C14
SYMATTR Value 100µf
SYMBOL cap -2464 -528 R90
WINDOW 0 0 32 VBottom 2
WINDOW 3 32 32 VTop 2
SYMATTR InstName C10
SYMATTR Value 100nf
SYMBOL cap -2080 -544 R90
WINDOW 0 0 32 VBottom 2
WINDOW 3 32 32 VTop 2
SYMATTR InstName C11
SYMATTR Value 100nf
SYMBOL cap -992 -336 R0
SYMATTR InstName C15
SYMATTR Value 10µF
SYMBOL cap -1376 -336 R0
SYMATTR InstName C16
SYMATTR Value 10µF
SYMBOL PowerProducts\\LT1086-5 -1152 -352 R0
SYMATTR InstName U3
SYMBOL cap -1376 -624 R0
SYMATTR InstName C17
SYMATTR Value 10µF
SYMBOL cap -992 -624 R0
SYMATTR InstName C18
SYMATTR Value 10µF
SYMBOL PowerProducts\\LT1086-12 -1152 -640 R0
SYMATTR InstName U6
SYMBOL PowerProducts\\LT1086-3.3 -1152 -80 R0
SYMATTR InstName U5
SYMBOL cap -1376 -64 R0
SYMATTR InstName C19
SYMATTR Value 10µf
TEXT -2880 -208 Left 2 !;ac oct 10 1 1000kHz
TEXT -2880 -184 Left 2 !.tran 0 3ms 0 100n
TEXT -1752 -744 Left 2 ;ADC
TEXT -2888 -280 Left 2 !.FOUR 60Khz 10 V(flywheel_out)
TEXT -2888 -240 Left 2 !.FOUR 60Khz 10 V(vin)
TEXT -2880 -152 Left 2 !.OPTIONS numdgt=7
